@ [ MODPATH 5.0 (TREF=   0.000000E+00 ) ]
      1  7.50000E+01  5.75000E+02  9.99000E-01  9.99000E+01  0.00000E+00    2    9    1       1
      1  1.00000E+02  5.62565E+02  9.93851E-01  9.93851E+01  1.03354E+02    3    9    1       1
      1  1.13826E+02  5.50000E+02  9.91822E-01  9.91822E+01  1.44232E+02    3   10    1       1
      1  1.50000E+02  5.13971E+02  9.81512E-01  9.81512E+01  3.53218E+02    4   10    1       1
      1  2.00000E+02  5.07631E+02  9.75740E-01  9.75740E+01  4.71177E+02    5   10    1       1
      1  2.09175E+02  5.00000E+02  9.74940E-01  9.74940E+01  4.87583E+02    5   11    1       1
      1  2.50000E+02  4.59257E+02  9.66256E-01  9.66256E+01  6.66517E+02    6   11    1       1
      1  2.60099E+02  4.50000E+02  9.65232E-01  9.65232E+01  6.87721E+02    6   12    1       1
      1  3.00000E+02  4.10192E+02  9.56441E-01  9.56441E+01  8.70725E+02    7   12    1       1
      1  3.50000E+02  4.05502E+02  9.52501E-01  9.52501E+01  9.53277E+02    8   12    1       1
      1  3.56173E+02  4.00000E+02  9.52136E-01  9.52136E+01  9.60949E+02    8   13    1       1
      1  3.60893E+02  3.78389E+02  9.50278E-01  9.50278E+01  1.00000E+03    8   13    1       1
      2  9.64286E+01  5.82143E+02  9.99000E-01  9.99000E+01  0.00000E+00    2    9    1       1
      2  1.00000E+02  5.79863E+02  9.98448E-01  9.98448E+01  1.10501E+01    3    9    1       1
      2  1.32907E+02  5.50000E+02  9.93659E-01  9.93659E+01  1.07218E+02    3   10    1       1
      2  1.50000E+02  5.33019E+02  9.90285E-01  9.90285E+01  1.75230E+02    4   10    1       1
      2  2.00000E+02  5.18036E+02  9.84462E-01  9.84462E+01  2.93190E+02    5   10    1       1
      2  2.21695E+02  5.00000E+02  9.82520E-01  9.82520E+01  3.32683E+02    5   11    1       1
      2  2.50000E+02  4.71791E+02  9.78201E-01  9.78201E+01  4.20792E+02    6   11    1       1
      2  2.73790E+02  4.50000E+02  9.75778E-01  9.75778E+01  4.70397E+02    6   12    1       1
      2  3.00000E+02  4.23891E+02  9.71641E-01  9.71641E+01  5.55375E+02    7   12    1       1
      2  3.50000E+02  4.12897E+02  9.67638E-01  9.67638E+01  6.37927E+02    8   12    1       1
      2  3.64473E+02  4.00000E+02  9.66756E-01  9.66756E+01  6.56175E+02    8   13    1       1
      2  4.00000E+02  3.64535E+02  9.62645E-01  9.62645E+01  7.41411E+02    9   13    1       1
      2  4.12123E+02  3.50000E+02  9.61830E-01  9.61830E+01  7.58351E+02    9   14    1       1
      2  4.50000E+02  3.09544E+02  9.57275E-01  9.57275E+01  8.53284E+02   10   14    1       1
      2  4.71055E+02  3.00000E+02  9.55727E-01  9.55727E+01  8.85650E+02   10   15    1       1
      2  4.85703E+02  2.79655E+02  9.50278E-01  9.50278E+01  1.00000E+03   10   15    1       1
      3  1.17857E+02  5.89286E+02  9.99000E-01  9.99000E+01  0.00000E+00    3    9    1       1
      3  1.50000E+02  5.60390E+02  9.94417E-01  9.94417E+01  9.19658E+01    4    9    1       1
      3  1.64457E+02  5.50000E+02  9.92460E-01  9.92460E+01  1.31352E+02    4   10    1       1
      3  2.00000E+02  5.33886E+02  9.88702E-01  9.88702E+01  2.07237E+02    5   10    1       1
      3  2.40798E+02  5.00000E+02  9.84933E-01  9.84933E+01  2.83630E+02    5   11    1       1
      3  2.50000E+02  4.90842E+02  9.83876E-01  9.83876E+01  3.05094E+02    6   11    1       1
      3  2.94635E+02  4.50000E+02  9.79355E-01  9.79355E+01  3.97202E+02    6   12    1       1
      3  3.00000E+02  4.44664E+02  9.78720E-01  9.78720E+01  4.10187E+02    7   12    1       1
      3  3.50000E+02  4.24111E+02  9.74688E-01  9.74688E+01  4.92739E+02    8   12    1       1
      3  3.77069E+02  4.00000E+02  9.72989E-01  9.72989E+01  5.27637E+02    8   13    1       1
      3  4.00000E+02  3.77126E+02  9.70939E-01  9.70939E+01  5.69827E+02    9   13    1       1
      3  4.22633E+02  3.50000E+02  9.69383E-01  9.69383E+01  6.01909E+02    9   14    1       1
      3  4.50000E+02  3.19798E+02  9.66812E-01  9.66812E+01  6.55014E+02   10   14    1       1
      3  4.82789E+02  3.00000E+02  9.64141E-01  9.64141E+01  7.10354E+02   10   15    1       1
      3  5.00000E+02  2.82939E+02  9.59746E-01  9.59746E+01  8.01719E+02   11   15    1       1
      3  5.42277E+02  2.50000E+02  9.50468E-01  9.50468E+01  9.96005E+02   11   16    1       1
      3  5.42900E+02  2.49283E+02  9.50278E-01  9.50278E+01  1.00000E+03   11   16    1       1
      4  1.39286E+02  5.96429E+02  9.99000E-01  9.99000E+01  0.00000E+00    3    9    1       1
      4  1.50000E+02  5.86732E+02  9.97490E-01  9.97490E+01  3.02630E+01    4    9    1       1
      4  2.00000E+02  5.50731E+02  9.91160E-01  9.91160E+01  1.57578E+02    5    9    1       1
      4  2.00807E+02  5.50000E+02  9.91067E-01  9.91067E+01  1.59447E+02    5   10    1       1
      4  2.50000E+02  5.10534E+02  9.86444E-01  9.86444E+01  2.52973E+02    6   10    1       1
      4  2.61286E+02  5.00000E+02  9.85304E-01  9.85303E+01  2.76102E+02    6   11    1       1
      4  3.00000E+02  4.64461E+02  9.81408E-01  9.81408E+01  3.55325E+02    7   11    1       1
      4  3.19311E+02  4.50000E+02  9.79579E-01  9.79579E+01  3.92638E+02    7   12    1       1
      4  3.50000E+02  4.35889E+02  9.77407E-01  9.77407E+01  4.37039E+02    8   12    1       1
      4  3.90310E+02  4.00000E+02  9.74808E-01  9.74808E+01  4.90292E+02    8   13    1       1
      4  4.00000E+02  3.90340E+02  9.74086E-01  9.74086E+01  5.05102E+02    9   13    1       1
      4  4.33672E+02  3.50000E+02  9.71728E-01  9.71728E+01  5.53573E+02    9   14    1       1
      4  4.50000E+02  3.31497E+02  9.70442E-01  9.70442E+01  5.80062E+02   10   14    1       1
      4  4.90904E+02  3.00000E+02  9.66837E-01  9.66837E+01  6.54488E+02   10   15    1       1
      4  5.00000E+02  2.90993E+02  9.64738E-01  9.64738E+01  6.97967E+02   11   15    1       1
      4  5.50000E+02  2.52420E+02  9.53591E-01  9.53591E+01  9.30409E+02   12   15    1       1
      4  5.52953E+02  2.50000E+02  9.52884E-01  9.52884E+01  9.45225E+02   12   16    1       1
      4  5.62944E+02  2.40978E+02  9.50278E-01  9.50278E+01  1.00000E+03   12   16    1       1
      5  1.60714E+02  6.03571E+02  9.99000E-01  9.99000E+01  0.00000E+00    4    8    1       1
      5  1.64569E+02  6.00000E+02  9.98459E-01  9.98459E+01  1.08313E+01    4    9    1       1
      5  2.00000E+02  5.72923E+02  9.94094E-01  9.94094E+01  9.84658E+01    5    9    1       1
      5  2.25331E+02  5.50000E+02  9.91182E-01  9.91182E+01  1.57126E+02    5   10    1       1
      5  2.50000E+02  5.30232E+02  9.88777E-01  9.88777E+01  2.05724E+02    6   10    1       1
      5  2.82425E+02  5.00000E+02  9.85487E-01  9.85487E+01  2.72369E+02    6   11    1       1
      5  3.00000E+02  4.83884E+02  9.83735E-01  9.83735E+01  3.07955E+02    7   11    1       1
      5  3.45301E+02  4.50000E+02  9.79640E-01  9.79640E+01  3.91398E+02    7   12    1       1
      5  3.50000E+02  4.47841E+02  9.79350E-01  9.79350E+01  3.97307E+02    8   12    1       1
      5  4.00000E+02  4.04023E+02  9.76061E-01  9.76061E+01  4.64595E+02    9   12    1       1
      5  4.03518E+02  4.00000E+02  9.75806E-01  9.75806E+01  4.69813E+02    9   13    1       1
      5  4.44881E+02  3.50000E+02  9.72845E-01  9.72845E+01  5.30605E+02    9   14    1       1
      5  4.50000E+02  3.44070E+02  9.72493E-01  9.72493E+01  5.37841E+02   10   14    1       1
      5  4.96664E+02  3.00000E+02  9.68117E-01  9.68117E+01  6.28032E+02   10   15    1       1
      5  5.00000E+02  2.96699E+02  9.67394E-01  9.67394E+01  6.42985E+02   11   15    1       1
      5  5.50000E+02  2.59083E+02  9.56216E-01  9.56216E+01  8.75427E+02   12   15    1       1
      5  5.61096E+02  2.50000E+02  9.53531E-01  9.53531E+01  9.31653E+02   12   16    1       1
      5  5.73491E+02  2.38730E+02  9.50278E-01  9.50278E+01  1.00000E+03   12   16    1       1
      6  1.82143E+02  6.10714E+02  9.99000E-01  9.99000E+01  0.00000E+00    4    8    1       1
      6  1.93996E+02  6.00000E+02  9.97384E-01  9.97384E+01  3.23692E+01    4    9    1       1
      6  2.00000E+02  5.95420E+02  9.96683E-01  9.96684E+01  4.64299E+01    5    9    1       1
      6  2.50000E+02  5.50238E+02  9.90933E-01  9.90933E+01  1.62151E+02    6    9    1       1
      6  2.50229E+02  5.50000E+02  9.90907E-01  9.90907E+01  1.62680E+02    6   10    1       1
      6  3.00000E+02  5.03703E+02  9.85839E-01  9.85839E+01  2.65228E+02    7   10    1       1
      6  3.03778E+02  5.00000E+02  9.85454E-01  9.85454E+01  2.73049E+02    7   11    1       1
      6  3.50000E+02  4.63510E+02  9.81333E-01  9.81333E+01  3.56864E+02    8   11    1       1
      6  3.63822E+02  4.50000E+02  9.80198E-01  9.80198E+01  3.80011E+02    8   12    1       1
      6  4.00000E+02  4.18628E+02  9.77756E-01  9.77756E+01  4.29892E+02    9   12    1       1
      6  4.16298E+02  4.00000E+02  9.76554E-01  9.76554E+01  4.54484E+02    9   13    1       1
      6  4.50000E+02  3.58644E+02  9.74078E-01  9.74078E+01  5.05270E+02   10   13    1       1
      6  4.55539E+02  3.50000E+02  9.73645E-01  9.73645E+01  5.14163E+02   10   14    1       1
      6  5.00000E+02  3.00881E+02  9.69140E-01  9.69140E+01  6.06909E+02   11   14    1       1
      6  5.01782E+02  3.00000E+02  9.68862E-01  9.68862E+01  6.12654E+02   11   15    1       1
      6  5.50000E+02  2.64266E+02  9.58037E-01  9.58037E+01  8.37362E+02   12   15    1       1
      6  5.67441E+02  2.50000E+02  9.53779E-01  9.53779E+01  9.26445E+02   12   16    1       1
      6  5.80726E+02  2.37866E+02  9.50278E-01  9.50278E+01  1.00000E+03   12   16    1       1
      7  2.03571E+02  6.17857E+02  9.99000E-01  9.99000E+01  0.00000E+00    5    8    1       1
      7  2.20612E+02  6.00000E+02  9.96716E-01  9.96716E+01  4.57748E+01    5    9    1       1
      7  2.50000E+02  5.73484E+02  9.93334E-01  9.93334E+01  1.13759E+02    6    9    1       1
      7  2.72743E+02  5.50000E+02  9.90728E-01  9.90728E+01  1.66300E+02    6   10    1       1
      7  3.00000E+02  5.24675E+02  9.87941E-01  9.87941E+01  2.22633E+02    7   10    1       1
      7  3.25204E+02  5.00000E+02  9.85395E-01  9.85395E+01  2.74237E+02    7   11    1       1
      7  3.50000E+02  4.80444E+02  9.83270E-01  9.83270E+01  3.17419E+02    8   11    1       1
      7  3.81169E+02  4.50000E+02  9.80693E-01  9.80693E+01  3.69913E+02    8   12    1       1
      7  4.00000E+02  4.33681E+02  9.79379E-01  9.79379E+01  3.96716E+02    9   12    1       1
      7  4.29483E+02  4.00000E+02  9.77163E-01  9.77163E+01  4.42019E+02    9   13    1       1
      7  4.50000E+02  3.74836E+02  9.75626E-01  9.75626E+01  4.73516E+02   10   13    1       1
      7  4.65923E+02  3.50000E+02  9.74343E-01  9.74343E+01  4.99823E+02   10   14    1       1
      7  5.00000E+02  3.05236E+02  9.70608E-01  9.70608E+01  5.76643E+02   11   14    1       1
      7  5.08768E+02  3.00000E+02  9.69204E-01  9.69204E+01  6.05589E+02   11   15    1       1
      7  5.50000E+02  2.69468E+02  9.59847E-01  9.59847E+01  7.99608E+02   12   15    1       1
      7  5.73820E+02  2.50000E+02  9.53979E-01  9.53979E+01  9.22257E+02   12   16    1       1
      7  5.87804E+02  2.37171E+02  9.50278E-01  9.50278E+01  1.00000E+03   12   16    1       1
      8  2.25000E+02  6.25000E+02  9.99000E-01  9.99000E+01  0.00000E+00    5    8    1       1
      8  2.49009E+02  6.00000E+02  9.95806E-01  9.95806E+01  6.40539E+01    5    9    1       1
      8  2.50000E+02  5.99108E+02  9.95692E-01  9.95692E+01  6.63422E+01    6    9    1       1
      8  2.97629E+02  5.50000E+02  9.90233E-01  9.90233E+01  1.76288E+02    6   10    1       1
      8  3.00000E+02  5.47799E+02  9.89990E-01  9.89990E+01  1.81206E+02    7   10    1       1
      8  3.48883E+02  5.00000E+02  9.85107E-01  9.85107E+01  2.80091E+02    7   11    1       1
      8  3.50000E+02  4.99120E+02  9.85015E-01  9.85015E+01  2.81957E+02    8   11    1       1
      8  4.00000E+02  4.50334E+02  9.80851E-01  9.80851E+01  3.66684E+02    9   11    1       1
      8  4.00284E+02  4.50000E+02  9.80827E-01  9.80827E+01  3.67173E+02    9   12    1       1
      8  4.44045E+02  4.00000E+02  9.77465E-01  9.77465E+01  4.35852E+02    9   13    1       1
      8  4.50000E+02  3.92700E+02  9.77009E-01  9.77009E+01  4.45190E+02   10   13    1       1
      8  4.77389E+02  3.50000E+02  9.74726E-01  9.74726E+01  4.91974E+02   10   14    1       1
      8  5.00000E+02  3.12678E+02  9.71990E-01  9.71990E+01  5.48195E+02   11   14    1       1
      8  5.16741E+02  3.00000E+02  9.69231E-01  9.69231E+01  6.05029E+02   11   15    1       1
      8  5.50000E+02  2.75395E+02  9.61592E-01  9.61592E+01  7.63299E+02   12   15    1       1
      8  5.81102E+02  2.50000E+02  9.53851E-01  9.53851E+01  9.24941E+02   12   16    1       1
      8  5.94545E+02  2.37617E+02  9.50278E-01  9.50278E+01  1.00000E+03   12   16    1       1
      9  2.46429E+02  6.32143E+02  9.99000E-01  9.99000E+01  0.00000E+00    5    8    1       1
      9  2.50000E+02  6.28426E+02  9.98526E-01  9.98526E+01  9.49887E+00    6    8    1       1
      9  2.74012E+02  6.00000E+02  9.95349E-01  9.95349E+01  7.32291E+01    6    9    1       1
      9  3.00000E+02  5.73243E+02  9.92370E-01  9.92370E+01  1.33171E+02    7    9    1       1
      9  3.20380E+02  5.50000E+02  9.90051E-01  9.90051E+01  1.79960E+02    7   10    1       1
      9  3.50000E+02  5.21038E+02  9.87122E-01  9.87122E+01  2.39217E+02    8   10    1       1
      9  3.68915E+02  5.00000E+02  9.85283E-01  9.85283E+01  2.76518E+02    8   11    1       1
      9  4.00000E+02  4.69714E+02  9.82675E-01  9.82675E+01  3.29517E+02    9   11    1       1
      9  4.16762E+02  4.50000E+02  9.81241E-01  9.81241E+01  3.58735E+02    9   12    1       1
      9  4.50000E+02  4.11356E+02  9.78604E-01  9.78604E+01  4.12554E+02   10   12    1       1
      9  4.58172E+02  4.00000E+02  9.77917E-01  9.77917E+01  4.26602E+02   10   13    1       1
      9  4.88875E+02  3.50000E+02  9.75203E-01  9.75203E+01  4.82178E+02   10   14    1       1
      9  5.00000E+02  3.25557E+02  9.73689E-01  9.73689E+01  5.13247E+02   11   14    1       1
      9  5.25342E+02  3.00000E+02  9.69376E-01  9.69376E+01  6.02053E+02   11   15    1       1
      9  5.50000E+02  2.81776E+02  9.63635E-01  9.63635E+01  7.20853E+02   12   15    1       1
      9  5.88957E+02  2.50000E+02  9.53829E-01  9.53829E+01  9.25407E+02   12   16    1       1
      9  6.00000E+02  2.39797E+02  9.50881E-01  9.50881E+01  9.87314E+02   13   16    1       1
      9  6.02255E+02  2.37684E+02  9.50278E-01  9.50278E+01  1.00000E+03   13   16    1       1
     10  2.67857E+02  6.39286E+02  9.99000E-01  9.99000E+01  0.00000E+00    6    8    1       1
     10  3.00000E+02  6.01342E+02  9.94760E-01  9.94760E+01  8.50672E+01    7    8    1       1
     10  3.01014E+02  6.00000E+02  9.94627E-01  9.94627E+01  8.77442E+01    7    9    1       1
     10  3.44930E+02  5.50000E+02  9.89650E-01  9.89650E+01  1.88079E+02    7   10    1       1
     10  3.50000E+02  5.45049E+02  9.89154E-01  9.89154E+01  1.98095E+02    8   10    1       1
     10  3.90547E+02  5.00000E+02  9.85204E-01  9.85204E+01  2.78118E+02    8   11    1       1
     10  4.00000E+02  4.90799E+02  9.84405E-01  9.84405E+01  2.94349E+02    9   11    1       1
     10  4.34716E+02  4.50000E+02  9.81392E-01  9.81392E+01  3.55660E+02    9   12    1       1
     10  4.50000E+02  4.32243E+02  9.80147E-01  9.80147E+01  3.81048E+02   10   12    1       1
     10  4.73219E+02  4.00000E+02  9.78149E-01  9.78149E+01  4.21855E+02   10   13    1       1
     10  5.00000E+02  3.52937E+02  9.75581E-01  9.75581E+01  4.74438E+02   11   13    1       1
     10  5.01645E+02  3.50000E+02  9.75408E-01  9.75408E+01  4.77974E+02   11   14    1       1
     10  5.36031E+02  3.00000E+02  9.69264E-01  9.69264E+01  6.04350E+02   11   15    1       1
     10  5.50000E+02  2.89689E+02  9.65956E-01  9.65956E+01  6.72719E+02   12   15    1       1
     10  5.98723E+02  2.50000E+02  9.53520E-01  9.53520E+01  9.31888E+02   12   16    1       1
     10  6.00000E+02  2.48821E+02  9.53178E-01  9.53177E+01  9.39071E+02   13   16    1       1
     10  6.10830E+02  2.38690E+02  9.50278E-01  9.50278E+01  1.00000E+03   13   16    1       1
     11  2.89286E+02  6.46429E+02  9.99000E-01  9.99000E+01  0.00000E+00    6    8    1       1
     11  3.00000E+02  6.33799E+02  9.97587E-01  9.97587E+01  2.83156E+01    7    8    1       1
     11  3.25574E+02  6.00000E+02  9.94234E-01  9.94234E+01  9.56469E+01    7    9    1       1
     11  3.50000E+02  5.72275E+02  9.91479E-01  9.91479E+01  1.51137E+02    8    9    1       1
     11  3.67593E+02  5.50000E+02  9.89511E-01  9.89511E+01  1.90887E+02    8   10    1       1
     11  4.00000E+02  5.14011E+02  9.86348E-01  9.86348E+01  2.54906E+02    9   10    1       1
     11  4.11079E+02  5.00000E+02  9.85265E-01  9.85265E+01  2.76891E+02    9   11    1       1
     11  4.50000E+02  4.53765E+02  9.81818E-01  9.81818E+01  3.46971E+02   10   11    1       1
     11  4.52774E+02  4.50000E+02  9.81565E-01  9.81565E+01  3.52123E+02   10   12    1       1
     11  4.88518E+02  4.00000E+02  9.78402E-01  9.78402E+01  4.16688E+02   10   13    1       1
     11  5.00000E+02  3.79838E+02  9.77244E-01  9.77244E+01  4.40363E+02   11   13    1       1
     11  5.16728E+02  3.50000E+02  9.75460E-01  9.75460E+01  4.76916E+02   11   14    1       1
     11  5.47693E+02  3.00000E+02  9.69316E-01  9.69316E+01  6.03293E+02   11   15    1       1
     11  5.50000E+02  2.98300E+02  9.68759E-01  9.68759E+01  6.14783E+02   12   15    1       1
     11  6.00000E+02  2.58736E+02  9.55940E-01  9.55940E+01  8.81204E+02   13   15    1       1
     11  6.09270E+02  2.50000E+02  9.53441E-01  9.53441E+01  9.33556E+02   13   16    1       1
     11  6.21075E+02  2.38955E+02  9.50278E-01  9.50278E+01  1.00000E+03   13   16    1       1
     12  3.10714E+02  6.53571E+02  9.99000E-01  9.99000E+01  0.00000E+00    7    7    1       1
     12  3.12996E+02  6.50000E+02  9.98646E-01  9.98646E+01  7.08445E+00    7    8    1       1
     12  3.50000E+02  6.01281E+02  9.93815E-01  9.93815E+01  1.04070E+02    8    8    1       1
     12  3.50876E+02  6.00000E+02  9.93702E-01  9.93702E+01  1.06356E+02    8    9    1       1
     12  3.90410E+02  5.50000E+02  9.89279E-01  9.89279E+01  1.95578E+02    8   10    1       1
     12  4.00000E+02  5.39363E+02  9.88341E-01  9.88341E+01  2.14536E+02    9   10    1       1
     12  4.31155E+02  5.00000E+02  9.85272E-01  9.85272E+01  2.76746E+02    9   11    1       1
     12  4.50000E+02  4.77634E+02  9.83577E-01  9.83577E+01  3.11180E+02   10   11    1       1
     12  4.70380E+02  4.50000E+02  9.81692E-01  9.81692E+01  3.49543E+02   10   12    1       1
     12  5.00000E+02  4.07008E+02  9.78950E-01  9.78950E+01  4.05477E+02   11   12    1       1
     12  5.04546E+02  4.00000E+02  9.78508E-01  9.78508E+01  4.14506E+02   11   13    1       1
     12  5.32318E+02  3.50000E+02  9.75476E-01  9.75476E+01  4.76590E+02   11   14    1       1
     12  5.50000E+02  3.10212E+02  9.71695E-01  9.71695E+01  5.54249E+02   12   14    1       1
     12  5.61273E+02  3.00000E+02  9.68984E-01  9.68984E+01  6.10129E+02   12   15    1       1
     12  6.00000E+02  2.69603E+02  9.58897E-01  9.58897E+01  8.19417E+02   13   15    1       1
     12  6.20833E+02  2.50000E+02  9.53321E-01  9.53321E+01  9.36064E+02   13   16    1       1
     12  6.32188E+02  2.39372E+02  9.50278E-01  9.50278E+01  1.00000E+03   13   16    1       1
     13  3.32143E+02  6.60714E+02  9.99000E-01  9.99000E+01  0.00000E+00    7    7    1       1
     13  3.39028E+02  6.50000E+02  9.97937E-01  9.97937E+01  2.12912E+01    7    8    1       1
     13  3.50000E+02  6.35579E+02  9.96508E-01  9.96508E+01  4.99579E+01    8    8    1       1
     13  3.74377E+02  6.00000E+02  9.93353E-01  9.93353E+01  1.13378E+02    8    9    1       1
     13  4.00000E+02  5.67651E+02  9.90489E-01  9.90490E+01  1.71111E+02    9    9    1       1
     13  4.12621E+02  5.50000E+02  9.89083E-01  9.89083E+01  1.99536E+02    9   10    1       1
     13  4.50000E+02  5.02489E+02  9.85362E-01  9.85362E+01  2.74906E+02   10   10    1       1
     13  4.51770E+02  5.00000E+02  9.85184E-01  9.85184E+01  2.78519E+02   10   11    1       1
     13  4.88576E+02  4.50000E+02  9.81724E-01  9.81724E+01  3.48886E+02   10   12    1       1
     13  5.00000E+02  4.33433E+02  9.80635E-01  9.80635E+01  3.71081E+02   11   12    1       1
     13  5.21707E+02  4.00000E+02  9.78496E-01  9.78496E+01  4.14759E+02   11   13    1       1
     13  5.48431E+02  3.50000E+02  9.75463E-01  9.75463E+01  4.76843E+02   11   14    1       1
     13  5.50000E+02  3.44137E+02  9.75102E-01  9.75102E+01  4.84251E+02   12   14    1       1
     13  5.77478E+02  3.00000E+02  9.68045E-01  9.68045E+01  6.29529E+02   12   15    1       1
     13  6.00000E+02  2.82361E+02  9.62048E-01  9.62048E+01  7.53806E+02   13   15    1       1
     13  6.34457E+02  2.50000E+02  9.52904E-01  9.52904E+01  9.44814E+02   13   16    1       1
     13  6.44254E+02  2.40829E+02  9.50278E-01  9.50278E+01  1.00000E+03   13   16    1       1
     14  3.53571E+02  6.67857E+02  9.99000E-01  9.99000E+01  0.00000E+00    8    7    1       1
     14  3.63891E+02  6.50000E+02  9.97417E-01  9.97417E+01  3.17073E+01    8    8    1       1
     14  3.98286E+02  6.00000E+02  9.92985E-01  9.92985E+01  1.20785E+02    8    9    1       1
     14  4.00000E+02  5.97834E+02  9.92794E-01  9.92794E+01  1.24643E+02    9    9    1       1
     14  4.34244E+02  5.50000E+02  9.88967E-01  9.88967E+01  2.01869E+02    9   10    1       1
     14  4.50000E+02  5.29995E+02  9.87387E-01  9.87387E+01  2.33853E+02   10   10    1       1
     14  4.71356E+02  5.00000E+02  9.85223E-01  9.85223E+01  2.77733E+02   10   11    1       1
     14  5.00000E+02  4.60380E+02  9.82463E-01  9.82463E+01  3.33840E+02   11   11    1       1
     14  5.07015E+02  4.50000E+02  9.81771E-01  9.81771E+01  3.47941E+02   11   12    1       1
     14  5.39153E+02  4.00000E+02  9.78541E-01  9.78541E+01  4.13849E+02   11   13    1       1
     14  5.50000E+02  3.79648E+02  9.77281E-01  9.77281E+01  4.39618E+02   12   13    1       1
     14  5.69668E+02  3.50000E+02  9.75076E-01  9.75076E+01  4.84794E+02   12   14    1       1
     14  5.94769E+02  3.00000E+02  9.67544E-01  9.67544E+01  6.39879E+02   12   15    1       1
     14  6.00000E+02  2.95913E+02  9.66116E-01  9.66116E+01  6.69417E+02   13   15    1       1
     14  6.48983E+02  2.50000E+02  9.53223E-01  9.53223E+01  9.38115E+02   13   16    1       1
     14  6.50000E+02  2.49050E+02  9.52950E-01  9.52950E+01  9.43840E+02   14   16    1       1
     14  6.60031E+02  2.40442E+02  9.50278E-01  9.50278E+01  1.00000E+03   14   16    1       1
     15  3.75000E+02  6.75000E+02  9.99000E-01  9.99000E+01  0.00000E+00    8    7    1       1
     15  3.89586E+02  6.50000E+02  9.96786E-01  9.96786E+01  4.43649E+01    8    8    1       1
     15  4.00000E+02  6.34891E+02  9.95447E-01  9.95447E+01  7.12475E+01    9    8    1       1
     15  4.21976E+02  6.00000E+02  9.92639E-01  9.92639E+01  1.27749E+02    9    9    1       1
     15  4.50000E+02  5.60808E+02  9.89500E-01  9.89500E+01  1.91092E+02   10    9    1       1
     15  4.57123E+02  5.50000E+02  9.88702E-01  9.88702E+01  2.07226E+02   10   10    1       1
     15  4.92580E+02  5.00000E+02  9.85073E-01  9.85073E+01  2.80780E+02   10   11    1       1
     15  5.00000E+02  4.89748E+02  9.84345E-01  9.84345E+01  2.95560E+02   11   11    1       1
     15  5.26890E+02  4.50000E+02  9.81665E-01  9.81665E+01  3.50091E+02   11   12    1       1
     15  5.50000E+02  4.13428E+02  9.79285E-01  9.79285E+01  3.98641E+02   12   12    1       1
     15  5.58632E+02  4.00000E+02  9.78382E-01  9.78382E+01  4.17102E+02   12   13    1       1
     15  5.93243E+02  3.50000E+02  9.74769E-01  9.74769E+01  4.91081E+02   12   14    1       1
     15  6.00000E+02  3.26049E+02  9.72440E-01  9.72440E+01  5.38927E+02   13   14    1       1
     15  6.19941E+02  3.00000E+02  9.65935E-01  9.65935E+01  6.73163E+02   13   15    1       1
     15  6.50000E+02  2.71797E+02  9.58126E-01  9.58126E+01  8.35511E+02   14   15    1       1
     15  6.76837E+02  2.50000E+02  9.51492E-01  9.51492E+01  9.74475E+02   14   16    1       1
     15  6.81537E+02  2.46073E+02  9.50278E-01  9.50278E+01  1.00000E+03   14   16    1       1
     16  3.96429E+02  6.82143E+02  9.99000E-01  9.99000E+01  0.00000E+00    8    7    1       1
     16  4.00000E+02  6.76047E+02  9.98461E-01  9.98461E+01  1.07896E+01    9    7    1       1
     16  4.13953E+02  6.50000E+02  9.96370E-01  9.96370E+01  5.27210E+01    9    8    1       1
     16  4.45575E+02  6.00000E+02  9.92347E-01  9.92347E+01  1.33646E+02    9    9    1       1
     16  4.50000E+02  5.93819E+02  9.91850E-01  9.91850E+01  1.43664E+02   10    9    1       1
     16  4.78915E+02  5.50000E+02  9.88604E-01  9.88604E+01  2.09229E+02   10   10    1       1
     16  5.00000E+02  5.20137E+02  9.86422E-01  9.86422E+01  2.53405E+02   11   10    1       1
     16  5.13368E+02  5.00000E+02  9.85029E-01  9.85029E+01  2.81669E+02   11   11    1       1
     16  5.46811E+02  4.50000E+02  9.81645E-01  9.81645E+01  3.50503E+02   11   12    1       1
     16  5.50000E+02  4.44958E+02  9.81311E-01  9.81311E+01  3.57310E+02   12   12    1       1
     16  5.78934E+02  4.00000E+02  9.78285E-01  9.78285E+01  4.19078E+02   12   13    1       1
     16  6.00000E+02  3.70405E+02  9.76211E-01  9.76211E+01  4.61531E+02   13   13    1       1
     16  6.26716E+02  3.50000E+02  9.73301E-01  9.73301E+01  5.21231E+02   13   14    1       1
     16  6.50000E+02  3.21578E+02  9.67177E-01  9.67177E+01  6.47469E+02   14   14    1       1
     16  6.75957E+02  3.00000E+02  9.61022E-01  9.61022E+01  7.75144E+02   14   15    1       1
     16  7.00000E+02  2.80319E+02  9.55274E-01  9.55274E+01  8.95140E+02   15   15    1       1
     16  7.21830E+02  2.64917E+02  9.50278E-01  9.50278E+01  1.00000E+03   15   15    1       1
     17  4.17857E+02  6.89286E+02  9.99000E-01  9.99000E+01  0.00000E+00    9    7    1       1
     17  4.39160E+02  6.50000E+02  9.95852E-01  9.95852E+01  6.31326E+01    9    8    1       1
     17  4.50000E+02  6.32900E+02  9.94476E-01  9.94476E+01  9.07746E+01   10    8    1       1
     17  4.69433E+02  6.00000E+02  9.92026E-01  9.92026E+01  1.40103E+02   10    9    1       1
     17  5.00000E+02  5.53614E+02  9.88587E-01  9.88587E+01  2.09558E+02   11    9    1       1
     17  5.02253E+02  5.50000E+02  9.88334E-01  9.88334E+01  2.14685E+02   11   10    1       1
     17  5.35458E+02  5.00000E+02  9.84858E-01  9.84858E+01  2.85148E+02   11   11    1       1
     17  5.50000E+02  4.78217E+02  9.83368E-01  9.83368E+01  3.15419E+02   12   11    1       1
     17  5.68499E+02  4.50000E+02  9.81463E-01  9.81463E+01  3.54204E+02   12   12    1       1
     17  6.00000E+02  4.01208E+02  9.78180E-01  9.78180E+01  4.21231E+02   13   12    1       1
     17  6.00735E+02  4.00000E+02  9.78103E-01  9.78103E+01  4.22793E+02   13   13    1       1
     17  6.43793E+02  3.50000E+02  9.72802E-01  9.72802E+01  5.31482E+02   13   14    1       1
     17  6.50000E+02  3.42388E+02  9.71260E-01  9.71260E+01  5.63213E+02   14   14    1       1
     17  7.00000E+02  3.00891E+02  9.59585E-01  9.59585E+01  8.05071E+02   15   14    1       1
     17  7.01221E+02  3.00000E+02  9.59312E-01  9.59312E+01  8.10769E+02   15   15    1       1
     17  7.41375E+02  2.71365E+02  9.50278E-01  9.50278E+01  1.00000E+03   15   15    1       1
     18  4.39286E+02  6.96429E+02  9.99000E-01  9.99000E+01  0.00000E+00    9    7    1       1
     18  4.50000E+02  6.76784E+02  9.97432E-01  9.97431E+01  3.14267E+01   10    7    1       1
     18  4.63697E+02  6.50000E+02  9.95447E-01  9.95447E+01  7.12547E+01   10    8    1       1
     18  4.93382E+02  6.00000E+02  9.91727E-01  9.91727E+01  1.46147E+02   10    9    1       1
     18  5.00000E+02  5.89970E+02  9.90980E-01  9.90980E+01  1.61204E+02   11    9    1       1
     18  5.24951E+02  5.50000E+02  9.88176E-01  9.88176E+01  2.17872E+02   11   10    1       1
     18  5.50000E+02  5.12134E+02  9.85539E-01  9.85539E+01  2.71321E+02   12   10    1       1
     18  5.57822E+02  5.00000E+02  9.84715E-01  9.84715E+01  2.88054E+02   12   11    1       1
     18  5.90611E+02  4.50000E+02  9.81333E-01  9.81333E+01  3.56865E+02   12   12    1       1
     18  6.00000E+02  4.35474E+02  9.80355E-01  9.80355E+01  3.76805E+02   13   12    1       1
     18  6.21618E+02  4.00000E+02  9.78058E-01  9.78058E+01  4.23712E+02   13   13    1       1
     18  6.50000E+02  3.56499E+02  9.73895E-01  9.73895E+01  5.09032E+02   14   13    1       1
     18  6.58291E+02  3.50000E+02  9.72357E-01  9.72357E+01  5.40641E+02   14   14    1       1
     18  7.00000E+02  3.15062E+02  9.62655E-01  9.62655E+01  7.41202E+02   15   14    1       1
     18  7.20680E+02  3.00000E+02  9.58104E-01  9.58104E+01  8.35979E+02   15   15    1       1
     18  7.50000E+02  2.79435E+02  9.51675E-01  9.51675E+01  9.70625E+02   16   15    1       1
     18  7.56617E+02  2.75459E+02  9.50278E-01  9.50278E+01  1.00000E+03   16   15    1       1
     19  4.60714E+02  7.03571E+02  9.99000E-01  9.99000E+01  0.00000E+00   10    6    1       1
     19  4.62257E+02  7.00000E+02  9.98738E-01  9.98738E+01  5.24383E+00   10    7    1       1
     19  4.88092E+02  6.50000E+02  9.95046E-01  9.95046E+01  7.93215E+01   10    8    1       1
     19  5.00000E+02  6.30008E+02  9.93560E-01  9.93560E+01  1.09213E+02   11    8    1       1
     19  5.16985E+02  6.00000E+02  9.91457E-01  9.91457E+01  1.51587E+02   11    9    1       1
     19  5.48296E+02  5.50000E+02  9.87949E-01  9.87949E+01  2.22468E+02   11   10    1       1
     19  5.50000E+02  5.47427E+02  9.87769E-01  9.87769E+01  2.26117E+02   12   10    1       1
     19  5.80608E+02  5.00000E+02  9.84551E-01  9.84551E+01  2.91388E+02   12   11    1       1
     19  6.00000E+02  4.70434E+02  9.82547E-01  9.82547E+01  3.32122E+02   13   11    1       1